
OS:Version,
  {bebe01fa-4c5a-4395-93e9-10a24a6d7baa}, !- Handle
  3.4.0;                                  !- Version Identifier

OS:Building,
  {b1ea0d22-bb66-4b49-a02a-cf1d88d40cdb}, !- Handle
  Building 1,                             !- Name
  ,                                       !- Building Sector Type
  0,                                      !- North Axis {deg}
  ,                                       !- Nominal Floor to Floor Height {m}
  ,                                       !- Space Type Name
  {6302bf23-dc56-4419-a97a-ac34df41eb59}, !- Default Construction Set Name
  ,                                       !- Default Schedule Set Name
  ,                                       !- Standards Number of Stories
  ,                                       !- Standards Number of Above Ground Stories
  ,                                       !- Standards Template
  MediumOffice;                           !- Standards Building Type

OS:Facility,
  {3c4b9dd8-da18-46f7-a4e2-c1517e87acb6}; !- Handle

OS:Site,
  {43e408c2-4685-437d-96af-36df1cca5082}, !- Handle
  Site 1,                                 !- Name
  ,                                       !- Latitude {deg}
  ,                                       !- Longitude {deg}
  ,                                       !- Time Zone {hr}
  ,                                       !- Elevation {m}
  City;                                   !- Terrain

OS:SimulationControl,
  {0e0acb8d-7d75-4174-9750-fdb75828367d}, !- Handle
  Yes,                                    !- Do Zone Sizing Calculation
  Yes,                                    !- Do System Sizing Calculation
  Yes,                                    !- Do Plant Sizing Calculation
  No,                                     !- Run Simulation for Sizing Periods
  Yes,                                    !- Run Simulation for Weather File Run Periods
  ,                                       !- Loads Convergence Tolerance Value {W}
  ,                                       !- Temperature Convergence Tolerance Value {deltaC}
  FullInteriorAndExterior;                !- Solar Distribution

OS:Sizing:Parameters,
  {6e570b6f-6e2b-4359-bf8e-4232625267f6}, !- Handle
  1.25,                                   !- Heating Sizing Factor
  1.15;                                   !- Cooling Sizing Factor

OS:Timestep,
  {d91f67b2-2e71-4e5e-9e5f-a751b8612cbb}, !- Handle
  6;                                      !- Number of Timesteps per Hour

OS:ShadowCalculation,
  {df532116-d536-492e-bc80-f7decef7aaa2}, !- Handle
  PolygonClipping,                        !- Shading Calculation Method
  Periodic,                               !- Shading Calculation Update Frequency Method
  30,                                     !- Shading Calculation Update Frequency
  15000,                                  !- Maximum Figures in Shadow Overlap Calculations
  ,                                       !- Polygon Clipping Algorithm
  512,                                    !- Pixel Counting Resolution
  ,                                       !- Sky Diffuse Modeling Algorithm
  No,                                     !- Output External Shading Calculation Results
  No,                                     !- Disable Self-Shading Within Shading Zone Groups
  No;                                     !- Disable Self-Shading From Shading Zone Groups to Other Zones

OS:HeatBalanceAlgorithm,
  {c969aee1-e14b-4c61-8134-7f50ee39bf16}, !- Handle
  ConductionTransferFunction,             !- Algorithm
  200;                                    !- Surface Temperature Upper Limit {C}

OS:RunPeriod,
  {e3b3e966-24cc-4a2a-b92f-aa64fc8a96be}, !- Handle
  Run Period 1,                           !- Name
  1,                                      !- Begin Month
  1,                                      !- Begin Day of Month
  12,                                     !- End Month
  31,                                     !- End Day of Month
  ,                                       !- Use Weather File Holidays and Special Days
  ,                                       !- Use Weather File Daylight Saving Period
  ,                                       !- Apply Weekend Holiday Rule
  ,                                       !- Use Weather File Rain Indicators
  ,                                       !- Use Weather File Snow Indicators
  ;                                       !- Number of Times Runperiod to be Repeated

OS:LifeCycleCost:Parameters,
  {b15a092d-5348-4727-8c48-69f51043c746}, !- Handle
  ,                                       !- Analysis Type
  ,                                       !- Discounting Convention
  ,                                       !- Inflation Approach
  ,                                       !- Real Discount Rate
  ,                                       !- Nominal Discount Rate
  ,                                       !- Inflation
  ,                                       !- Base Date Month
  ,                                       !- Base Date Year
  ,                                       !- Service Date Month
  ,                                       !- Service Date Year
  ;                                       !- Length of Study Period in Years

OS:WeatherFile,
  {d88179f7-abbc-4b52-aaf8-ca1491a5b68a}, !- Handle
  Tucscon-Davis-Monthan AFB,              !- City
  AZ,                                     !- State Province Region
  USA,                                    !- Country
  TMY3,                                   !- Data Source
  722745,                                 !- WMO Number
  32.167,                                 !- Latitude {deg}
  -110.883,                               !- Longitude {deg}
  -7,                                     !- Time Zone {hr}
  809,                                    !- Elevation {m}
  C:/Users/admin/master/thermal-mass/simdata/epw/USA_AZ_Tucson-Davis-Monthan.AFB.722745_TMY3/USA_AZ_Tucson-Davis-Monthan.AFB.722745_TMY3.epw, !- Url
  01A0A2CA,                               !- Checksum
  ,                                       !- Start Date Actual Year
  Sunday;                                 !- Start Day of Week

OS:SizingPeriod:DesignDay,
  {2f10a535-8be7-4255-8ddd-ff8ff7cb9501}, !- Handle
  Tucscon-Davis-Monthan AFB Heating Design Day 99.6% Condns DB, !- Name
  0.1,                                    !- Maximum Dry-Bulb Temperature {C}
  0,                                      !- Daily Dry-Bulb Temperature Range {deltaC}
  92091.3584475,                          !- Barometric Pressure {Pa}
  2.5,                                    !- Wind Speed {m/s}
  150,                                    !- Wind Direction {deg}
  0,                                      !- Sky Clearness
  ,                                       !- Rain Indicator
  ,                                       !- Snow Indicator
  21,                                     !- Day of Month
  12,                                     !- Month
  WinterDesignDay,                        !- Day Type
  ,                                       !- Daylight Saving Time Indicator
  Wetbulb,                                !- Humidity Condition Type
  ,                                       !- Humidity Condition Day Schedule Name
  0.1,                                    !- Wetbulb or DewPoint at Maximum Dry-Bulb {C}
  ,                                       !- Humidity Ratio at Maximum Dry-Bulb {kgWater/kgDryAir}
  ,                                       !- Enthalpy at Maximum Dry-Bulb {J/kg}
  ,                                       !- Dry-Bulb Temperature Range Modifier Type
  ,                                       !- Dry-Bulb Temperature Range Modifier Day Schedule Name
  ASHRAEClearSky;                         !- Solar Model Indicator

OS:SizingPeriod:DesignDay,
  {57923e0e-63df-4e0e-8d9d-8a773b315706}, !- Handle
  Tucscon-Davis-Monthan AFB Cooling Design Day 0.4% Condns DB=>MWB, !- Name
  40,                                     !- Maximum Dry-Bulb Temperature {C}
  16.3,                                   !- Daily Dry-Bulb Temperature Range {deltaC}
  92091,                                  !- Barometric Pressure {Pa}
  4.9,                                    !- Wind Speed {m/s}
  292,                                    !- Wind Direction {deg}
  1,                                      !- Sky Clearness
  ,                                       !- Rain Indicator
  ,                                       !- Snow Indicator
  21,                                     !- Day of Month
  6,                                      !- Month
  SummerDesignDay,                        !- Day Type
  ,                                       !- Daylight Saving Time Indicator
  Wetbulb,                                !- Humidity Condition Type
  ,                                       !- Humidity Condition Day Schedule Name
  17.3,                                   !- Wetbulb or DewPoint at Maximum Dry-Bulb {C}
  ,                                       !- Humidity Ratio at Maximum Dry-Bulb {kgWater/kgDryAir}
  ,                                       !- Enthalpy at Maximum Dry-Bulb {J/kg}
  ,                                       !- Dry-Bulb Temperature Range Modifier Type
  ,                                       !- Dry-Bulb Temperature Range Modifier Day Schedule Name
  ASHRAEClearSky;                         !- Solar Model Indicator

OS:Site:WaterMainsTemperature,
  {c30311ef-af56-44bc-a137-7b11278329b2}, !- Handle
  CorrelationFromWeatherFile;             !- Calculation Method

OS:ClimateZones,
  {764d69c4-5360-42d3-82da-6e881754672e}, !- Handle
  ASHRAE,                                 !- Climate Zone Institution Name 1
  ANSI/ASHRAE Standard 169,               !- Climate Zone Document Name 1
  2006,                                   !- Climate Zone Document Year 1
  3A;                                     !- Climate Zone Value 1

OS:Output:Variable,
  {7e95d42f-9113-4b04-851e-bff2c9cf9880}, !- Handle
  Output Variable 1,                      !- Name
  ,                                       !- Key Value
  AFN Zone Infiltration Sensible Heat Gain Energy, !- Variable Name
  Hourly;                                 !- Reporting Frequency

OS:Output:Variable,
  {c599baa2-89ba-40ff-8239-b2d1b24d0ecf}, !- Handle
  Output Variable 2,                      !- Name
  ,                                       !- Key Value
  AFN Zone Infiltration Sensible Heat Loss Energy, !- Variable Name
  Hourly;                                 !- Reporting Frequency

OS:Output:Variable,
  {73fec1b5-4b40-4ed1-ab2f-53e20353b294}, !- Handle
  Output Variable 3,                      !- Name
  ,                                       !- Key Value
  AFN Zone Ventilation Sensible Heat Gain Energy, !- Variable Name
  Hourly;                                 !- Reporting Frequency

OS:Output:Variable,
  {353ad194-94d7-455d-a493-23d649a8f6bc}, !- Handle
  Output Variable 4,                      !- Name
  ,                                       !- Key Value
  AFN Zone Ventilation Sensible Heat Loss Energy, !- Variable Name
  Hourly;                                 !- Reporting Frequency

OS:Output:Variable,
  {344b3d94-a17c-46bb-9a85-21ef3a40cef4}, !- Handle
  Output Variable 5,                      !- Name
  ,                                       !- Key Value
  Baseboard Electricity Energy,           !- Variable Name
  Hourly;                                 !- Reporting Frequency

OS:Output:Variable,
  {24fa7021-6bbd-41fd-a4bb-af48a22d0295}, !- Handle
  Output Variable 6,                      !- Name
  ,                                       !- Key Value
  Boiler Electricity Energy,              !- Variable Name
  Hourly;                                 !- Reporting Frequency

OS:Output:Variable,
  {a076481f-94af-459f-9e18-e7a97e7595ac}, !- Handle
  Output Variable 7,                      !- Name
  ,                                       !- Key Value
  Boiler NaturalGas Energy,               !- Variable Name
  Hourly;                                 !- Reporting Frequency

OS:Output:Variable,
  {2e60580e-9a61-4342-96a3-6e3871dd2706}, !- Handle
  Output Variable 8,                      !- Name
  ,                                       !- Key Value
  Chiller Electricity Energy,             !- Variable Name
  Hourly;                                 !- Reporting Frequency

OS:Output:Variable,
  {63866b9f-459f-46cb-be59-18224925603c}, !- Handle
  Output Variable 9,                      !- Name
  ,                                       !- Key Value
  Chiller Heater System Cooling Electricity Energy, !- Variable Name
  Hourly;                                 !- Reporting Frequency

OS:Output:Variable,
  {cf87be42-e7f9-4f24-8b1c-3af25f2ef29a}, !- Handle
  Output Variable 10,                     !- Name
  ,                                       !- Key Value
  Chiller Heater System Heating Electricity Energy, !- Variable Name
  Hourly;                                 !- Reporting Frequency

OS:Output:Variable,
  {852298ca-5a86-450d-9900-8f01a5463429}, !- Handle
  Output Variable 11,                     !- Name
  ,                                       !- Key Value
  Cooling Coil Electricity Energy,        !- Variable Name
  Hourly;                                 !- Reporting Frequency

OS:Output:Variable,
  {6ea5c3a4-8779-4b4c-b0a2-8017d52f5f91}, !- Handle
  Output Variable 12,                     !- Name
  ,                                       !- Key Value
  Cooling Coil Water Heating Electricity Energy, !- Variable Name
  Hourly;                                 !- Reporting Frequency

OS:Output:Variable,
  {013fca3f-16d2-4112-806e-1c8fb033cf11}, !- Handle
  Output Variable 13,                     !- Name
  ,                                       !- Key Value
  Cooling Tower Fan Electricity Energy,   !- Variable Name
  Hourly;                                 !- Reporting Frequency

OS:Output:Variable,
  {ac38f662-3cf8-46dc-9485-7081ace926e5}, !- Handle
  Output Variable 14,                     !- Name
  ,                                       !- Key Value
  District Cooling Chilled Water Energy,  !- Variable Name
  Hourly;                                 !- Reporting Frequency

OS:Output:Variable,
  {78f90493-84ab-4ddd-9692-b1ae70667519}, !- Handle
  Output Variable 15,                     !- Name
  ,                                       !- Key Value
  District Heating Hot Water Energy,      !- Variable Name
  Hourly;                                 !- Reporting Frequency

OS:Output:Variable,
  {3431f042-ba3f-4ab8-855f-c027688318c3}, !- Handle
  Output Variable 16,                     !- Name
  ,                                       !- Key Value
  Evaporative Cooler Electricity Energy,  !- Variable Name
  Hourly;                                 !- Reporting Frequency

OS:Output:Variable,
  {dd0959e9-688f-4861-abf1-dbcdd7033f9b}, !- Handle
  Output Variable 17,                     !- Name
  ,                                       !- Key Value
  Fan Electricity Energy,                 !- Variable Name
  Hourly;                                 !- Reporting Frequency

OS:Output:Variable,
  {e141dff6-c6d1-41e6-952b-afc433bbc837}, !- Handle
  Output Variable 18,                     !- Name
  ,                                       !- Key Value
  Heating Coil Electricity Energy,        !- Variable Name
  Hourly;                                 !- Reporting Frequency

OS:Output:Variable,
  {f01cd2b3-7a33-4141-9bff-c2f3b031d893}, !- Handle
  Output Variable 19,                     !- Name
  ,                                       !- Key Value
  Heating Coil NaturalGas Energy,         !- Variable Name
  Hourly;                                 !- Reporting Frequency

OS:Output:Variable,
  {87f2d39a-810d-4062-a09a-fe01cd7c6d0b}, !- Handle
  Output Variable 20,                     !- Name
  ,                                       !- Key Value
  Heating Coil Total Heating Energy,      !- Variable Name
  Hourly;                                 !- Reporting Frequency

OS:Output:Variable,
  {a0fb9794-1c57-4c16-9a56-75e079a3ec8c}, !- Handle
  Output Variable 21,                     !- Name
  ,                                       !- Key Value
  Hot_Water_Loop_Central_Air_Source_Heat_Pump Electricity Consumption, !- Variable Name
  Hourly;                                 !- Reporting Frequency

OS:Output:Variable,
  {16316341-ec87-4c3e-81af-2b960bbe7059}, !- Handle
  Output Variable 22,                     !- Name
  ,                                       !- Key Value
  Humidifier Electricity Energy,          !- Variable Name
  Hourly;                                 !- Reporting Frequency

OS:Output:Variable,
  {ce413f10-fb67-4c19-911b-66115e959472}, !- Handle
  Output Variable 23,                     !- Name
  ,                                       !- Key Value
  Pump Electricity Energy,                !- Variable Name
  Hourly;                                 !- Reporting Frequency

OS:Output:Variable,
  {043257f7-dddd-48e2-936c-0f229c643383}, !- Handle
  Output Variable 24,                     !- Name
  ,                                       !- Key Value
  Surface Inside Face Conduction Heat Transfer Energy, !- Variable Name
  Hourly;                                 !- Reporting Frequency

OS:Output:Variable,
  {c514ee69-e1fc-4e72-89c2-7ad14df6b179}, !- Handle
  Output Variable 25,                     !- Name
  ,                                       !- Key Value
  Surface Inside Face Temperature,        !- Variable Name
  Hourly;                                 !- Reporting Frequency

OS:Output:Variable,
  {ae6c0706-a7e6-4955-a157-c95e0562ef87}, !- Handle
  Output Variable 26,                     !- Name
  ,                                       !- Key Value
  Surface Outside Face Temperature,       !- Variable Name
  Hourly;                                 !- Reporting Frequency

OS:Output:Variable,
  {21110df4-4c18-4fc0-b136-d85003a2ec7e}, !- Handle
  Output Variable 27,                     !- Name
  ,                                       !- Key Value
  Surface Window Heat Gain Energy,        !- Variable Name
  Hourly;                                 !- Reporting Frequency

OS:Output:Variable,
  {6b31133e-10fb-4d71-bcb9-8582a7def1e9}, !- Handle
  Output Variable 28,                     !- Name
  ,                                       !- Key Value
  Surface Window Heat Loss Energy,        !- Variable Name
  Hourly;                                 !- Reporting Frequency

OS:Output:Variable,
  {90dbc890-0402-4ac7-8f8a-aff7d8a0e351}, !- Handle
  Output Variable 29,                     !- Name
  ,                                       !- Key Value
  VRF Heat Pump Cooling Electricity Energy, !- Variable Name
  Hourly;                                 !- Reporting Frequency

OS:Output:Variable,
  {1f90bcdb-8653-4cac-85c5-631f2cb840a5}, !- Handle
  Output Variable 30,                     !- Name
  ,                                       !- Key Value
  VRF Heat Pump Crankcase Heater Electricity Energy, !- Variable Name
  Hourly;                                 !- Reporting Frequency

OS:Output:Variable,
  {b7720e69-f429-443b-a704-6e2b8929d276}, !- Handle
  Output Variable 31,                     !- Name
  ,                                       !- Key Value
  VRF Heat Pump Defrost Electricity Energy, !- Variable Name
  Hourly;                                 !- Reporting Frequency

OS:Output:Variable,
  {ecc731a5-2a8f-40a2-9217-e2fa8029de48}, !- Handle
  Output Variable 32,                     !- Name
  ,                                       !- Key Value
  VRF Heat Pump Heating Electricity Energy, !- Variable Name
  Hourly;                                 !- Reporting Frequency

OS:Output:Variable,
  {29e8ccf4-eeed-4127-bbd6-692e90c97667}, !- Handle
  Output Variable 33,                     !- Name
  ,                                       !- Key Value
  Water Heater Electricity Energy,        !- Variable Name
  Hourly;                                 !- Reporting Frequency

OS:Output:Variable,
  {210f73f7-d077-42e9-97dc-4f960e84f56f}, !- Handle
  Output Variable 34,                     !- Name
  ,                                       !- Key Value
  Water Heater NaturalGas Energy,         !- Variable Name
  Hourly;                                 !- Reporting Frequency

OS:Output:Variable,
  {6df4a39e-c0d9-4787-aca2-b7b0f78c2b4f}, !- Handle
  Output Variable 35,                     !- Name
  ,                                       !- Key Value
  Water Use Equipment Heating Energy,     !- Variable Name
  Hourly;                                 !- Reporting Frequency

OS:Output:Variable,
  {93016a80-7e8c-4a6c-ae04-8eb2d2ef2784}, !- Handle
  Output Variable 36,                     !- Name
  ,                                       !- Key Value
  Zone Air Relative Humidity,             !- Variable Name
  Hourly;                                 !- Reporting Frequency

OS:Output:Variable,
  {0d4688e9-5c0c-41e3-b10a-f02d9891a756}, !- Handle
  Output Variable 37,                     !- Name
  ,                                       !- Key Value
  Zone Electric Equipment Electricity Energy, !- Variable Name
  Hourly;                                 !- Reporting Frequency

OS:Output:Variable,
  {431d48ed-0c5b-4733-836d-0daa061c2181}, !- Handle
  Output Variable 38,                     !- Name
  ,                                       !- Key Value
  Zone Gas Equipment NaturalGas Energy,   !- Variable Name
  Hourly;                                 !- Reporting Frequency

OS:Output:Variable,
  {40c82de4-15fb-42bc-8ce4-ccef0559bda3}, !- Handle
  Output Variable 39,                     !- Name
  ,                                       !- Key Value
  Zone Ideal Loads Supply Air Total Cooling Energy, !- Variable Name
  Hourly;                                 !- Reporting Frequency

OS:Output:Variable,
  {8a37379d-99c0-487d-ba71-132145c0c963}, !- Handle
  Output Variable 40,                     !- Name
  ,                                       !- Key Value
  Zone Ideal Loads Supply Air Total Heating Energy, !- Variable Name
  Hourly;                                 !- Reporting Frequency

OS:Output:Variable,
  {e7f1167e-0d72-4880-8c0a-ce5cbf40f0ec}, !- Handle
  Output Variable 41,                     !- Name
  ,                                       !- Key Value
  Zone Ideal Loads Zone Total Cooling Energy, !- Variable Name
  Hourly;                                 !- Reporting Frequency

OS:Output:Variable,
  {edfd9a79-f13f-4a20-a658-abe48f3e49a0}, !- Handle
  Output Variable 42,                     !- Name
  ,                                       !- Key Value
  Zone Ideal Loads Zone Total Heating Energy, !- Variable Name
  Hourly;                                 !- Reporting Frequency

OS:Output:Variable,
  {81b65acc-0e06-4b40-b785-f42ffffc43b8}, !- Handle
  Output Variable 43,                     !- Name
  ,                                       !- Key Value
  Zone Infiltration Total Heat Gain Energy, !- Variable Name
  Hourly;                                 !- Reporting Frequency

OS:Output:Variable,
  {4ef0c88d-d6e6-44ea-b55c-7538e0fab424}, !- Handle
  Output Variable 44,                     !- Name
  ,                                       !- Key Value
  Zone Infiltration Total Heat Loss Energy, !- Variable Name
  Hourly;                                 !- Reporting Frequency

OS:Output:Variable,
  {55abbe8d-8b52-4e67-893c-20805d03dd4e}, !- Handle
  Output Variable 45,                     !- Name
  ,                                       !- Key Value
  Zone Lights Electricity Energy,         !- Variable Name
  Hourly;                                 !- Reporting Frequency

OS:Output:Variable,
  {7592b546-5395-4395-84aa-ceb40cce88e3}, !- Handle
  Output Variable 46,                     !- Name
  ,                                       !- Key Value
  Zone Mean Air Temperature,              !- Variable Name
  Hourly;                                 !- Reporting Frequency

OS:Output:Variable,
  {2d8f9665-3e28-458f-bc8b-78d401e90484}, !- Handle
  Output Variable 47,                     !- Name
  ,                                       !- Key Value
  Zone Mean Radiant Temperature,          !- Variable Name
  Hourly;                                 !- Reporting Frequency

OS:Output:Variable,
  {3aa186c3-9b88-41c7-b50a-a2de539a548a}, !- Handle
  Output Variable 48,                     !- Name
  ,                                       !- Key Value
  Zone Operative Temperature,             !- Variable Name
  Hourly;                                 !- Reporting Frequency

OS:Output:Variable,
  {b8575d51-e7ad-4710-88ce-c7d1489b6095}, !- Handle
  Output Variable 49,                     !- Name
  ,                                       !- Key Value
  Zone Other Equipment Lost Heat Energy,  !- Variable Name
  Hourly;                                 !- Reporting Frequency

OS:Output:Variable,
  {4d157eb0-473e-4b38-81e4-77bdd72bdfa8}, !- Handle
  Output Variable 50,                     !- Name
  ,                                       !- Key Value
  Zone Other Equipment Total Heating Energy, !- Variable Name
  Hourly;                                 !- Reporting Frequency

OS:Output:Variable,
  {aae14b9d-f0f6-4685-ae76-8df708975fc0}, !- Handle
  Output Variable 51,                     !- Name
  ,                                       !- Key Value
  Zone People Total Heating Energy,       !- Variable Name
  Hourly;                                 !- Reporting Frequency

OS:Output:Variable,
  {f8dbee4f-448a-4425-99ba-711cc821fe2b}, !- Handle
  Output Variable 52,                     !- Name
  ,                                       !- Key Value
  Zone VRF Air Terminal Cooling Electricity Energy, !- Variable Name
  Hourly;                                 !- Reporting Frequency

OS:Output:Variable,
  {e5e98737-1cf6-4c4c-aa12-65a8fd4e94bb}, !- Handle
  Output Variable 53,                     !- Name
  ,                                       !- Key Value
  Zone VRF Air Terminal Heating Electricity Energy, !- Variable Name
  Hourly;                                 !- Reporting Frequency

OS:Output:Variable,
  {1f5f44ef-8217-4017-a0c6-82ca77a0bd2e}, !- Handle
  Output Variable 54,                     !- Name
  ,                                       !- Key Value
  Zone Ventilation Fan Electricity Energy, !- Variable Name
  Hourly;                                 !- Reporting Frequency

OS:Output:Variable,
  {170da331-5993-40a5-8b50-d44de07cb4d1}, !- Handle
  Output Variable 55,                     !- Name
  ,                                       !- Key Value
  Zone Ventilation Total Heat Gain Energy, !- Variable Name
  Hourly;                                 !- Reporting Frequency

OS:Output:Variable,
  {eecd4e0b-87d7-44f7-9fe6-d38a93b4dbf6}, !- Handle
  Output Variable 56,                     !- Name
  ,                                       !- Key Value
  Zone Ventilation Total Heat Loss Energy, !- Variable Name
  Hourly;                                 !- Reporting Frequency

OS:Output:Variable,
  {106a27f4-6fbb-44dd-b1c2-d38878d4d77a}, !- Handle
  Output Variable 57,                     !- Name
  ,                                       !- Key Value
  Zone Windows Total Transmitted Solar Radiation Energy, !- Variable Name
  Hourly;                                 !- Reporting Frequency

OS:Output:Table:SummaryReports,
  {52981d8a-294e-49c7-a583-d880f8915587}, !- Handle
  AllSummary;                             !- Report Name 1

OS:YearDescription,
  {adebae0a-f5ee-47a0-b189-be409a7b75a0}, !- Handle
  ,                                       !- Calendar Year
  Sunday,                                 !- Day of Week for Start Day
  No;                                     !- Is Leap Year

OS:ScheduleTypeLimits,
  {d280bab5-5cde-4920-8723-6a3940063af1}, !- Handle
  Temperature,                            !- Name
  -273.15,                                !- Lower Limit Value
  ,                                       !- Upper Limit Value
  Continuous,                             !- Numeric Type
  Temperature;                            !- Unit Type

OS:ScheduleTypeLimits,
  {57eed410-d2b9-4815-afbc-b838ecf8986a}, !- Handle
  Activity Level,                         !- Name
  0,                                      !- Lower Limit Value
  ,                                       !- Upper Limit Value
  Continuous,                             !- Numeric Type
  ActivityLevel;                          !- Unit Type

OS:ScheduleTypeLimits,
  {14be0c46-618a-4f0b-b519-80ff3dbabf48}, !- Handle
  Fractional,                             !- Name
  0,                                      !- Lower Limit Value
  1,                                      !- Upper Limit Value
  Continuous,                             !- Numeric Type
  Dimensionless;                          !- Unit Type

OS:Schedule:Ruleset,
  {7838255e-e11e-4dfb-9851-5a22093c51bf}, !- Handle
  OfficeMedium BLDG_LIGHT_SCH_2013,       !- Name
  {14be0c46-618a-4f0b-b519-80ff3dbabf48}, !- Schedule Type Limits Name
  {50c4995c-a2ce-4f37-811d-71209a6b8fce}, !- Default Day Schedule Name
  {bc082ab7-d456-4623-a874-77fe86a2dff6}, !- Summer Design Day Schedule Name
  {d1c8fddc-837d-495f-b722-7a99a5ed1ac7}; !- Winter Design Day Schedule Name

OS:Schedule:Day,
  {50c4995c-a2ce-4f37-811d-71209a6b8fce}, !- Handle
  OfficeMedium BLDG_LIGHT_SCH_2013_Sat,   !- Name
  {14be0c46-618a-4f0b-b519-80ff3dbabf48}, !- Schedule Type Limits Name
  ,                                       !- Interpolate to Timestep
  6,                                      !- Hour 1
  0,                                      !- Minute 1
  0.05,                                   !- Value Until Time 1
  8,                                      !- Hour 2
  0,                                      !- Minute 2
  0.08623256,                             !- Value Until Time 2
  12,                                     !- Hour 3
  0,                                      !- Minute 3
  0.25869768,                             !- Value Until Time 3